Measurement: Broad Scan, 532 nm, unoriented, Raman Data RAW
Mineral: Aeschynite-(Y)
Locality: Hittero, Vest-Agder, Norway
Rruff sample: R060312
Chemistry: (Y,Ca,Fe,Th)(Ti,Nb)_2_(O,OH)_6_
Raman shift (cm-1)	intensity
165.508	1632.52
182.865	1635.15
200.221	1531.02
217.577	1462.02
234.933	1439.09
252.29	1428.21
269.646	1424.31
287.002	1427.25
304.358	1453.42
321.714	1472.98
339.071	1507.18
356.427	1516.86
373.783	1533.67
391.139	1540.36
408.495	1533.24
425.852	1532.61
443.208	1523.08
460.564	1531.42
477.92	1531.52
495.276	1517.88
512.633	1529.1
529.989	1528.46
547.345	1539.28
564.701	1546.46
582.057	1564.04
599.414	1584.43
616.77	1579.44
634.126	1571.6
651.482	1568.07
668.838	1585.4
686.195	1635.56
703.551	1704.26
720.907	1770.93
738.263	1821.16
755.619	1847.53
772.976	1846.27
790.332	1806.59
807.688	1734.17
825.044	1638.2
842.4	1500.33
859.757	1335.02
877.113	1144.01
894.469	955.024
911.825	791.466
929.182	645.454
946.538	534.856
963.894	455.252
981.25	400.383
998.606	357.571
1015.96	324.5
1033.32	296.732
1050.67	275.259
1068.03	257.947
1085.39	244.769
1102.74	230.022
1120.1	216.87
1137.46	207.151
1154.81	196.149
1172.17	191.837
1189.53	185.75
1206.88	180.511
1224.24	177.35
1241.59	174.164
1258.95	173.078
1276.31	171.908
1293.66	171.287
1311.02	170.681
1328.37	170.203
1345.73	171.581
1363.09	172.607
1380.44	174.572
1397.8	174.103
1415.15	175.122
1432.51	177.222
1449.87	179.811
1467.22	180.066
1484.58	182.987
1501.94	183.939
1519.29	184.129
1536.65	183.802
1554.01	186.567
1571.36	184.649
1588.72	186.274
1606.07	188.033
1623.43	191.926
1640.79	194.244
1658.14	197.331
1675.5	200.821
1692.85	208.428
1710.21	213.666
1727.57	218.838
1744.92	226.392
1762.28	233.844
1779.63	238.053
1796.99	248.46
1814.35	252.871
1831.7	260.083
1849.06	268.494
1866.42	273.712
1883.77	278.357
1901.13	282.875
1918.48	288.766
1935.84	292.812
1953.2	291.892
1970.55	296.282
1987.91	298.815
2005.27	299.389
2022.62	303.835
2039.98	304.116
2057.33	311.544
2074.69	313.921
2092.05	316.431
2109.4	316.203
2126.76	318.381
2144.12	314.445
2161.47	306.83
2178.83	301.381
2196.18	295.724
2213.54	285.777
2230.9	277.483
2248.25	264.085
2265.61	256.059
2282.97	246.887
2300.32	235.822
2317.68	226.43
2335.03	216.906
2352.39	207.922
2369.75	200.585
2387.1	193.83
2404.46	187.384
2421.82	180.852
2439.17	177.444
2456.53	171.976
2473.88	169.497
2491.24	164.563
2508.6	162.285
2525.95	157.583
2543.31	155.096
2560.66	152.908
2578.02	150.821
2595.38	149.576
2612.73	147.701
2630.09	146.845
2647.45	146.091
2664.8	145.919
2682.16	146.107
2699.51	144.819
2716.87	145.635
2734.23	146.16
2751.58	148.435
2768.94	149.063
2786.3	148.345
2803.65	150.96
2821.01	149.307
2838.36	148.293
2855.72	152.186
2873.08	156.217
2890.43	159.027
2907.79	158.521
2925.14	164.633
2942.5	167.158
2959.86	170.802
2977.21	176.821
2994.57	181.499
3011.93	193.165
3029.28	196.878
3046.64	210.274
3063.99	220.784
3081.35	229.917
3098.71	244.751
3116.06	257.345
3133.42	276.385
3150.78	294.699
3168.13	315.678
3185.49	336.94
3202.84	357.951
3220.2	381.78
3237.56	405.457
3254.91	437.033
3272.27	463.691
3289.62	496.684
3306.98	533.671
3324.34	573.302
3341.69	617.558
3359.05	654.386
3376.41	701.026
3393.76	745.901
3411.12	799.324
3428.47	853.94
3445.83	906.016
3463.19	964.182
3480.54	1016
3497.9	1057.02
3515.26	1090.5
3532.61	1122.55
3549.97	1128.45
3567.32	1142.05
3584.68	1154.84
3602.04	1165.31
3619.39	1172.54
3636.75	1171.41
3654.11	1171.77
3671.46	1157.96
3688.82	1138.14
3706.17	1125.11
3723.53	1092.85
3740.89	1071.05
3758.24	1052.92
3775.6	1016.65
3792.95	983.377
3810.31	958.742
3827.67	927.17
3845.02	891.603
3862.38	859.52
3879.74	833.795
3897.09	806.435
3914.45	784.264
3931.8	758.571
3949.16	731.79
3966.52	701.458
3983.87	667.373
4001.23	635.846
4018.59	594.616
4035.94	552.874
4053.3	508.335
4070.65	469.763
4088.01	432.548
4105.37	399.104
4122.72	369.162
4140.08	349.996
4157.44	329.469
4174.79	311.815
4192.15	301.624
4209.5	287.881
4226.86	281.613
4244.22	273.971
4261.57	267.887
4278.93	261.345
4296.28	258.166
4313.64	253.425
4331	252.071
4348.35	247.587
4365.71	244.689
4383.07	243.407
4400.42	241.354
4417.78	241.051
4435.13	237.814
4452.49	235.714
4469.85	236.545
4487.2	235.948
4504.56	234.783
4521.92	233.487
4539.27	232.398
4556.63	229.364
4573.98	228.546
4591.34	230.076
4608.7	228.9
4626.05	229.553
4643.41	227.476
4660.77	228.027
4678.12	227.977
4695.48	226.192
4712.83	220.854
4730.19	223.391
4747.55	223.262
4764.9	220.15
4782.26	220.453
4799.61	218.635
4816.97	216.363
4834.33	216.505
4851.68	214.958
4869.04	213.579
4886.4	210.857
4903.75	209.706
4921.11	208.336
4938.46	208.467
4955.82	206.725
4973.18	202.548
4990.53	200.814
5007.89	199.804
5025.24	197.266
5042.6	196.679
5059.96	196.912
5077.31	193.34
5094.67	193.346
5112.03	192.784
5129.38	192.327
5146.74	189.818
5164.1	190.163
5181.45	188.559
5198.81	186.154
5216.16	187.495
5233.52	191.138
5250.88	188.013
5268.23	189.512
5285.59	191.611
5302.94	186.236
5320.3	187.894
5337.66	187.936
5355.01	188.788
5372.37	188.334
5389.73	189.221
5407.08	189.723
5424.44	191.568
5441.79	191.407
5459.15	192.543
5476.51	191.659
5493.86	194.283
5511.22	195.637
5528.57	198.104
5545.93	194.951
5563.29	197.049
5580.64	197.652
5598	194.889
5615.36	192.711
5632.71	191.465
5650.07	188.553
5667.43	185.647
5684.78	181.078
5702.14	182.524
5719.49	178.258
5736.85	173.475
5754.21	170.099
5771.56	166.671
5788.92	163.196
5806.27	161.071
5823.63	158.014
5840.99	155.765
5858.34	152.569
5875.7	152.99
5893.06	147.992
5910.41	146.196
5927.77	148.373
5945.12	145.922
5962.48	146.375
5979.84	156.183
5997.19	146.109
6014.55	146.116
6031.9	149.335
6049.26	155.97
6066.62	160.255
6083.97	169.197
6101.33	178.825
6118.69	196.638
6136.04	215.91
6153.4	244.67
6170.75	274.324
6188.11	305.089
6205.47	335.596
6222.82	366.739
6240.18	395.49
6257.54	423.73
6274.89	447.226
6292.25	466.277
6309.6	484.47
6326.96	502.045
6344.32	512.443
6361.67	518.597
6379.03	531.852
6396.39	555.199
6413.74	559.547
6431.1	558.945
6448.45	544.183
6465.81	517.944
6483.17	491.282
6500.52	468.253
6517.88	444.698
6535.23	425.154
6552.59	411.189
6569.95	395.899
6587.3	380.801
6604.66	370.038
6622.02	357.545
