Measurement: Broad Scan, 780 nm, unoriented, Raman Data RAW
Mineral: Aeschynite-(Y)
Locality: Hittero, Vest-Agder, Norway
Rruff sample: R060312
Chemistry: (Y,Ca,Fe,Th)(Ti,Nb)_2_(O,OH)_6_
Raman shift (cm-1)	intensity
118.419	14077.6
128.061	14225.6
137.704	14367.7
147.346	14365.9
156.988	14195.5
166.631	14138.6
176.273	14192.3
185.916	14336.6
195.558	14618.1
205.2	15142.2
214.843	15809.4
224.485	16480.1
234.127	16965.4
243.769	17001
253.412	16751.1
263.054	16609.6
272.697	16683.9
282.339	16987.3
291.981	17310.4
301.623	17662.3
311.266	17968.1
320.908	18021.9
330.55	17771.2
340.193	17494.3
349.835	17514.3
359.478	17768.9
369.12	18210.2
378.762	18752.7
388.404	19140.4
398.047	19266.7
407.689	19058.7
417.332	18601.9
426.974	18050.2
436.616	17546.4
446.259	17154
455.901	16801.7
465.543	16451.1
475.185	16065.8
484.828	15494.6
494.47	14729.9
504.113	13914
513.755	13200
523.397	12683.8
533.04	12336.8
542.682	12064.2
552.324	11762.7
561.967	11381.1
571.609	11012
581.251	10583.9
590.894	10278.4
600.536	10043
610.178	9884.61
619.821	9797.58
629.463	9833.88
639.105	9966.43
648.748	10157.3
658.39	10308.2
668.032	10371.5
677.675	10292.1
687.317	9987.83
696.959	9556.65
706.602	9055.67
716.244	8551.09
725.886	8024.59
735.529	7512.1
745.171	7056.39
754.813	6645.64
764.456	6339.03
774.098	6057.78
783.74	5830
793.383	5612.02
803.025	5420.31
812.667	5235.42
822.31	5037.74
831.952	4812.97
841.594	4555.97
851.237	4258.02
860.879	3942.2
870.521	3620.24
880.164	3309.48
889.806	3031.17
899.448	2794.1
909.091	2596.7
918.733	2428.69
928.375	2268.05
938.018	2122.42
947.66	1992.64
957.302	1874.12
966.945	1760.89
976.587	1669.67
986.229	1584.67
995.872	1513.79
1005.51	1453.11
1015.16	1390.16
1024.8	1357.6
1034.44	1317.15
1044.08	1295.85
1053.73	1269.93
1063.37	1253.74
1073.01	1245.49
1082.65	1241.12
1092.3	1238.19
1101.94	1244.19
1111.58	1259.47
1121.22	1273
1130.86	1296.62
1140.51	1329.49
1150.15	1376.59
1159.79	1422.17
1169.43	1489.62
1179.08	1554.56
1188.72	1643.87
1198.36	1738.68
1208	1856.15
1217.64	1991.6
1227.29	2146.04
1236.93	2309.67
1246.57	2495.97
1256.21	2695.04
1265.86	2905.89
1275.5	3131.29
1285.14	3379.89
1294.78	3665.84
1304.43	3988.77
1314.07	4392.38
1323.71	4912.26
1333.35	5573.1
1343	6400.17
1352.64	7301.91
1362.28	8194.8
1371.92	8899.44
1381.57	9317.01
1391.21	9488.16
1400.85	9577.69
1410.49	9770.73
1420.13	10193.6
1429.78	10827.7
1439.42	11472
1449.06	12084.8
1458.7	12647.9
1468.35	13430.3
1477.99	14507.7
1487.63	15567.9
1497.27	16237
1506.91	15766.6
1516.56	14305.9
1526.2	12643.9
1535.84	11588.1
1545.48	11490.1
1555.13	11899.8
1564.77	12313.5
1574.41	12202.2
1584.05	11514.7
1593.7	10496.6
1603.34	9495.23
1612.98	8713.72
1622.62	8165.91
1632.27	7806.66
1641.91	7609.63
1651.55	7580.6
1661.19	7671.16
1670.84	7840.93
1680.48	8044.92
1690.12	8246.23
1699.76	8333.81
1709.4	8369.6
1719.05	8242.61
1728.69	8044.32
1738.33	7743.57
1747.97	7465.07
1757.62	7272.56
1767.26	7198.85
1776.9	7231.85
1786.54	7391.38
1796.18	7603.76
1805.83	7746.29
1815.47	7816.87
1825.11	7717.53
1834.76	7483.45
1844.4	7134.1
1854.04	6738.26
1863.68	6303.97
1873.32	5901.35
1882.97	5581.86
1892.61	5334.41
1902.25	5137.51
1911.89	5002.87
1921.54	4873.72
1931.18	4717.77
1940.82	4520.95
1950.46	4275.23
1960.11	3966.95
1969.75	3653.85
1979.39	3337.27
1989.03	3034.18
1998.67	2759.1
2008.32	2511.89
2017.96	2315.42
2027.6	2127.88
2037.24	1981.15
2046.89	1842.45
2056.53	1723.85
2066.17	1606.63
2075.81	1516.51
2085.45	1417.08
2095.1	1340.55
2104.74	1270.96
2114.38	1211.39
2124.03	1157.82
2133.67	1113.86
2143.31	1069.58
2152.95	1033.82
2162.59	1003.78
2172.24	967.719
2181.88	944.218
2191.52	919.744
2201.16	893.671
2210.81	880.018
2220.45	865.92
2230.09	855.894
2239.73	851.852
2249.38	853.014
2259.02	857.014
2268.66	866.63
2278.3	878.442
2287.94	893.674
2297.59	914.305
2307.23	918.291
2316.87	921.768
2326.51	928.95
2336.16	932.954
2345.8	941.687
2355.44	946.41
2365.08	961.94
2374.72	975.74
2384.37	980.532
2394.01	974.302
2403.65	968.192
2413.3	953.455
2422.94	949.66
2432.58	946.199
2442.22	956.688
2451.86	960.393
2461.51	964.357
2471.15	975.887
2480.79	977.782
2490.43	983.226
2500.08	985.77
2509.72	997.772
2519.36	1018.69
2529	1055.17
2538.64	1105.21
2548.29	1151.52
2557.93	1193.39
2567.57	1209.43
2577.21	1211.85
2586.86	1192.78
2596.5	1159.07
2606.14	1113.9
2615.78	1062.2
2625.43	1015.34
2635.07	952.686
2644.71	899.558
2654.35	843.908
2663.99	799.917
2673.64	764.024
2683.28	732.407
2692.92	701.876
2702.57	670.86
2712.21	647.993
2721.85	631.41
2731.49	610.521
2741.13	595.304
2750.78	577.631
2760.42	564.507
2770.06	545.58
2779.7	530.984
2789.35	512.621
2798.99	493.552
2808.63	477.229
2818.27	453.235
2827.91	432.905
2837.56	411.314
2847.2	391.736
2856.84	374.695
2866.48	356.444
2876.13	341.563
2885.77	325.292
2895.41	328.59
2905.05	296.61
2914.7	288.818
2924.34	275.809
2933.98	264.952
2943.62	251.599
2953.26	241.466
2962.91	230.448
2972.55	221.172
2982.19	213.151
2991.84	205.531
3001.48	195.968
3011.12	187.793
3020.76	179.741
3030.4	172.96
3040.05	165.546
3049.69	159.003
3059.33	153.781
3068.97	148.573
3078.62	141.867
3088.26	138.616
3097.9	130.588
3107.54	128.411
3117.18	126.353
3126.83	122.583
3136.47	117.543
3146.11	113.891
3155.75	114.894
3165.4	114.416
3175.04	108.383
3184.68	109.317
3194.32	107.175
3203.97	107.687
3213.61	110.682
3223.25	108.022
3232.89	109.677
3242.53	109.256
3252.18	112.328
3261.82	115.374
3271.46	118.337
3281.11	126.553
3290.75	138.563
3300.39	150.92
3310.03	168.431
3319.67	189.281
3329.32	216.511
3338.96	242.906
3348.6	264.949
3358.24	287.471
3367.89	302.395
3377.53	309.897
3387.17	308.136
3396.81	296.168
3406.45	287.583
3416.1	287.312
3425.74	294.244
3435.38	314.686
3445.02	332.738
3454.67	357.387
