Measurement: Broad Scan, 785 nm, unoriented, Raman Data Processed
Mineral: Cotunnite
Locality: Mount Vesuvius, Somma-Vesuvius Complex, Naples Province, Campania, Italy
Rruff sample: R060655
Chemistry: PbCl_2_
Raman shift (cm-1)	intensity
98.353	279.182
109.924	630.96
121.495	3436.16
133.066	28254.4
144.637	49846.6
156.207	73106.8
167.778	55576
179.349	49252.3
190.92	28055.3
202.49	16602.5
214.061	10783.1
225.632	7384.06
237.203	5344.04
248.774	4100.82
260.345	3168.92
271.915	2534.18
283.486	2133.34
295.057	1796.98
306.628	1553
318.198	1369.1
329.769	1235.43
341.34	1133.39
352.911	1066.29
364.482	1015
376.052	1004.11
387.623	971.567
399.194	979.697
410.765	952.201
422.336	919.699
433.906	862.333
445.477	829.515
457.048	744.843
468.619	710.185
480.19	687.36
491.761	670.284
503.331	650.061
514.902	626.535
526.473	621.939
538.044	614.351
549.615	609.018
561.185	624.679
572.756	598.088
584.327	591.294
595.898	598.892
607.469	584.634
619.039	589.177
630.61	590.315
642.181	569.17
653.752	565.149
665.323	562.413
676.893	566.411
688.464	550.954
700.035	555.364
711.606	569.895
723.177	557.619
734.747	540.804
746.318	552.756
757.889	542.108
769.46	544.417
781.031	538.537
792.601	537.898
804.172	532.884
815.743	518.209
827.314	498.043
838.885	525.282
850.455	508.787
862.026	536.265
873.597	513.023
885.168	511.297
896.739	515.964
908.309	506.063
919.88	507.759
931.451	517.877
943.022	511.459
954.593	523.033
966.164	492.392
977.734	499.778
989.305	494.676
1000.88	509.434
1012.45	496.491
1024.02	510.807
1035.59	499.769
1047.16	507.928
1058.73	491.39
1070.3	491.109
1081.87	496.653
1093.44	503.135
1105.01	487.678
1116.58	513.697
1128.15	527.942
1139.72	526.965
1151.3	514.469
1162.87	536.309
1174.44	511
1186.01	533.829
1197.58	554.844
1209.15	567.201
1220.72	565.297
1232.29	561.64
1243.86	537.84
1255.43	577.649
1267	558.255
1278.58	590.664
1290.15	595.028
1301.72	589.283
1313.29	577.683
1324.86	574.359
1336.43	594.09
1348	577.44
1359.57	557.774
1371.14	544.873
1382.71	546.116
1394.28	543.559
1405.85	552.481
1417.42	546.784
1428.99	543.399
1440.57	528.561
1452.14	509.491
1463.71	498.146
1475.28	509.746
1486.85	501.403
1498.42	517.144
1509.99	490.369
1521.56	502.688
1533.13	507.391
1544.7	492.571
1556.27	494.891
1567.85	474.095
1579.42	473.831
1590.99	463.291
1602.56	477.381
1614.13	467.681
1625.7	466.932
1637.27	474.306
1648.84	465.81
1660.41	457.692
1671.98	450.437
1683.55	441.075
1695.12	445.642
1706.69	421.98
1718.27	409.508
1729.84	430.007
1741.41	412.225
1752.98	398.917
1764.55	403.087
1776.12	402.081
1787.69	385.483
1799.26	389.45
1810.83	377.79
1822.4	370.607
1833.97	368.489
1845.54	362.921
1857.12	360.732
1868.69	372.651
1880.26	372.299
1891.83	355.84
1903.4	346.322
1914.97	335.505
1926.54	338.646
1938.11	314.731
1949.68	322.792
1961.25	297.654
1972.82	303.008
1984.39	313.783
1995.96	300.386
2007.54	299.144
2019.11	294.66
2030.68	299.609
2042.25	290.317
2053.82	291.94
2065.39	268.137
2076.96	259.689
2088.53	256.56
2100.1	273.299
2111.67	259.554
2123.24	270.931
2134.81	260.423
2146.39	236.792
2157.96	243.673
2169.53	242.21
2181.1	220.841
2192.67	226.122
2204.24	228.924
2215.81	219.224
2227.38	229.85
2238.95	209.342
2250.52	213.139
2262.09	201.498
2273.66	206.407
2285.24	192.851
2296.81	177.197
2308.38	178.933
2319.95	186.608
2331.52	180.109
2343.09	170.634
2354.66	173.783
2366.23	159.076
2377.8	166.839
2389.37	164.128
2400.94	152.24
2412.51	152.36
2424.08	144.014
2435.66	152.531
2447.23	137.829
2458.8	147.111
2470.37	139.345
2481.94	122.856
2493.51	148.006
2505.08	125.309
2516.65	125.885
2528.22	126.478
2539.79	104.042
2551.36	113.116
2562.93	122.972
2574.51	112.633
2586.08	90.563
2597.65	100.614
2609.22	102.815
2620.79	103.082
2632.36	97.486
2643.93	100.531
2655.5	87.528
2667.07	87.385
2678.64	91.048
2690.21	62.076
2701.78	80.677
2713.35	71.15
2724.93	71.942
2736.5	71.938
2748.07	81.42
2759.64	67.281
2771.21	65.631
2782.78	66.239
2794.35	44.759
2805.92	59.456
2817.49	51.299
2829.06	50.162
2840.63	54.172
2852.2	66.916
2863.78	53.201
2875.35	43.918
2886.92	37.689
2898.49	39.895
2910.06	46.222
2921.63	33.514
2933.2	38.056
2944.77	39.449
2956.34	32.854
2967.91	32.218
2979.48	31.276
2991.05	18.441
3002.62	34.776
3014.2	35.377
3025.77	16.369
3037.34	22.335
3048.91	22.362
3060.48	29.113
3072.05	20.167
3083.62	24.62
3095.19	14.43
3106.76	29.164
3118.33	17.242
3129.9	15.086
3141.47	19.336
3153.05	0.263
3164.62	14.926
3176.19	0.485
3187.76	12.107
3199.33	24.272
3210.9	11.313
3222.47	12.416
3234.04	21.036
3245.61	6.767
3257.18	9.546
3268.75	11.059
3280.32	26.634
3291.89	18.373
3303.47	7.788
3315.04	9.225
3326.61	15.054
3338.18	4.032
3349.75	10.715
3361.32	4.762
3372.89	7.54
3384.46	11.627
3396.03	18.55
3407.6	11.23
3419.17	-4.043
3430.74	-13.544
3442.32	0
3453.89	0
3465.46	0
3477.03	0
3488.6	0
3500.17	0
3511.74	0
3523.31	0
3534.88	0
3546.45	0
3558.02	0
3569.59	0
3581.16	0
3592.74	0
3604.31	0
3615.88	0
3627.45	0
3639.02	0
3650.59	0
3662.16	0
3673.73	0
3685.3	0
3696.87	0
3708.44	0
3720.01	0
3731.59	0
3743.16	0
3754.73	0
3766.3	0
3777.87	0
3789.44	0
3801.01	0
3812.58	0
3824.15	0
3835.72	0
3847.29	0
3858.86	0
3870.43	0
3882.01	0
3893.58	0
3905.15	0
3916.72	0
3928.29	0
3939.86	0
3951.43	0
3963	0
3974.57	0
3986.14	0
3997.71	0
4009.28	0
4020.86	0
4032.43	0
4044	0
4055.57	0
4067.14	0
4078.71	0
4090.28	0
4101.85	0
4113.42	0
4124.99	0
4136.56	0
4148.13	0
4159.7	0
4171.28	0
4182.85	0
4194.42	0
