Measurement: Broad Scan, 532 nm, unoriented, Raman Data Processed
Mineral: Ilmenite
Locality: Faraday Property, Bancroft District, Ontario, Canada
Rruff sample: R060149
Chemistry: Fe^2+^Ti^4+^O_3_
Raman shift (cm-1)	intensity
201.698	45.7532
219.054	48.6889
236.41	49.1293
253.766	44.0746
271.123	42.1493
288.479	41.3716
305.835	44.8515
323.191	49.5354
340.547	49.3989
357.904	42.0761
375.26	40.6897
392.616	38.0558
409.972	37.7883
427.328	38.0122
444.685	38.8141
462.041	38.1058
479.397	36.2498
496.753	34.8806
514.109	34.9665
531.466	35.2295
548.822	37.1158
566.178	39.4904
583.534	41.2522
600.89	43.8282
618.247	47.0125
635.603	51.3197
652.959	61.1419
670.315	73.2491
687.671	77.8957
705.028	63.5736
722.384	55.2016
739.74	51.7586
757.096	49.2895
774.452	47.7424
791.809	48.3366
809.165	48.6263
826.521	48.5539
843.877	48.8996
861.234	48.6247
878.59	47.1561
895.946	44.097
913.302	42.4954
930.658	42.2454
948.014	40.5204
965.371	41.0718
982.727	40.8249
1000.08	40.6251
1017.44	40.7689
1034.8	41.8964
1052.15	40.9238
1069.51	40.9927
1086.86	40.078
1104.22	39.848
1121.58	39.1816
1138.93	37.8685
1156.29	37.2999
1173.64	37.0597
1191	37.4417
1208.36	37.7549
1225.71	38.5906
1243.07	38.0793
1260.43	40.4229
1277.78	40.0777
1295.14	41.7035
1312.49	42.2445
1329.85	43.4948
1347.21	43.0284
1364.56	42.022
1381.92	41.8144
1399.28	41.2506
1416.63	41.5341
1433.99	41.1307
1451.34	41.0973
1468.7	39.9023
1486.06	40.2675
1503.41	39.3924
1520.77	39.0333
1538.12	38.7388
1555.48	38.1882
1572.84	37.9207
1590.19	36.3307
1607.55	36.4452
1624.91	37.7024
1642.26	37.4386
1659.62	38.0188
1676.97	37.0427
1694.33	36.9448
1711.69	37.2615
1729.04	37.5817
1746.4	37.6169
1763.76	38.1105
1781.11	36.9381
1798.47	37.458
1815.83	37.1505
1833.18	38.0901
1850.54	36.8457
1867.89	38.366
1885.25	37.4685
1902.61	38.4788
1919.96	37.4415
1937.32	37.9242
1954.67	38.1165
1972.03	38.1965
1989.39	38.5299
2006.74	38.9135
2024.1	38.8992
2041.45	38.7576
2058.81	39.029
2076.17	38.8416
2093.52	38.4321
2110.88	38.1752
2128.24	38.2782
2145.59	37.4439
2162.95	37.9825
2180.3	37.6407
2197.66	37.7289
2215.02	38.2009
2232.37	37.7022
2249.73	37.7274
2267.09	36.0588
2284.44	38.1587
2301.8	36.0159
2319.16	37.3442
2336.51	35.8831
2353.87	37.0203
2371.22	36.5106
2388.58	36.6868
2405.94	37.0171
2423.29	37.9312
2440.65	38.4668
2458	37.3525
2475.36	37.2688
2492.72	37.7794
2510.07	37.3154
2527.43	37.5751
2544.78	36.595
2562.14	37.9799
2579.5	37.6246
2596.85	36.9354
2614.21	36.9106
2631.57	38.2492
2648.92	38.2636
2666.28	37.6453
2683.64	37.214
2700.99	36.4953
2718.35	38.9068
2735.7	37.1
2753.06	36.9295
2770.42	38.4349
2787.77	37.4895
2805.13	37.552
2822.48	37.9484
2839.84	36.0275
2857.2	36.8522
2874.55	37.6829
2891.91	38.621
2909.26	38.8563
2926.62	37.9294
2943.98	38.8155
2961.33	37.0051
2978.69	38.0448
2996.05	38.4755
3013.4	38.1821
3030.76	37.8441
3048.11	37.8041
3065.47	37.27
3082.83	37.4328
3100.18	38.1005
3117.54	38.5768
3134.9	36.8952
3152.25	39.3855
3169.61	38.29
3186.97	38.0459
3204.32	39.0299
3221.68	37.6529
3239.03	37.3274
3256.39	38.3473
3273.75	38.718
3291.1	38.3747
3308.46	37.6593
3325.81	39.7829
3343.17	39.22
3360.53	38.0777
3377.88	39.5755
3395.24	39.1673
3412.59	39.5585
3429.95	39.8269
3447.31	39.2461
3464.66	39.0999
3482.02	40.2805
3499.38	39.4467
3516.73	40.8891
3534.09	39.9541
3551.45	40.9967
3568.8	41.7056
3586.16	40.544
3603.51	40.4888
3620.87	40.0906
3638.23	41.3484
3655.58	41.4597
3672.94	42.329
3690.29	41.5927
3707.65	40.047
3725.01	42.3892
3742.36	42.2317
3759.72	42.4338
3777.07	43.4359
3794.43	43.8607
3811.79	43.6052
3829.14	43.2764
3846.5	44.5381
3863.86	44.3455
3881.21	44.0128
3898.57	44.3383
3915.93	45.0298
3933.28	46.4401
3950.64	46.4268
3967.99	46.1633
3985.35	46.7366
4002.71	48.2904
4020.06	48.533
4037.42	47.7823
4054.78	49.1324
4072.13	50.7502
4089.49	49.4969
4106.84	50.3318
4124.2	50.4039
4141.56	50.9794
4158.91	52.2244
4176.27	54.3526
4193.62	53.4519
4210.98	54.928
4228.34	54.1128
4245.69	56.1168
4263.05	55.5063
4280.4	56.2603
4297.76	58.2292
4315.12	58.9223
4332.47	58.1358
4349.83	61.1975
4367.19	59.9472
4384.54	60.6267
4401.9	58.8133
4419.26	59.4557
4436.61	61.2905
4453.97	63.2674
4471.32	62.7574
4488.68	61.9067
4506.04	62.2456
4523.39	64.1647
4540.75	62.9686
4558.1	64.1247
4575.46	64.0499
4592.82	64.7252
4610.17	64.5732
4627.53	63.7068
4644.89	63.6766
4662.24	63.6935
4679.6	65.5773
4696.95	64.8366
4714.31	62.8078
4731.67	63.819
4749.02	65.1976
4766.38	65.2193
4783.73	65.0962
4801.09	65.5683
4818.45	66.4663
4835.8	65.1586
4853.16	65.0083
4870.52	65.1997
4887.87	66.1067
4905.23	64.2881
4922.59	66.3705
4939.94	65.2966
4957.3	65.7778
4974.65	67.0994
4992.01	65.7853
5009.37	65.7072
5026.72	66.1872
5044.08	66.3078
5061.44	67.3256
5078.79	68.0638
5096.15	68.8623
5113.5	67.2341
5130.86	68.4311
5148.22	69.0892
5165.57	68.7301
5182.93	68.9678
5200.28	67.6078
5217.64	69.7224
5235	69.2276
5252.35	71.3396
5269.71	71.1366
5287.06	71.0983
5304.42	69.6257
5321.78	71.7775
5339.13	69.8472
5356.49	69.741
5373.85	70.6366
5391.2	72.6963
5408.56	71.0837
5425.91	70.3571
5443.27	71.5837
5460.63	70.7454
5477.98	71.181
5495.34	72.4007
5512.7	71.1595
5530.05	71.7803
5547.41	73.0208
5564.76	72.0058
5582.12	71.3856
5599.48	73.8353
5616.83	71.9321
5634.19	72.105
5651.55	72.4624
5668.9	70.7613
5686.26	71.8063
5703.61	71.2569
5720.97	73.4539
5738.33	70.63
5755.68	71.0072
5773.04	70.4318
5790.4	71.928
5807.75	70.7453
5825.11	71.9276
5842.46	70.5821
5859.82	71.832
5877.18	71.7411
5894.53	69.3325
5911.89	71.0732
5929.24	69.888
5946.6	69.8252
5963.96	69.2921
5981.31	71.1037
5998.67	67.8944
6016.02	69.3619
6033.38	68.6423
6050.74	68.9247
6068.09	67.358
6085.45	66.2206
6102.81	67.2117
6120.16	67.2551
6137.52	68.3793
6154.88	66.6707
6172.23	65.6506
6189.59	67.3366
6206.94	65.0842
6224.3	65.2783
6241.66	66.1396
6259.01	63.3644
6276.37	61.0718
6293.73	64.7701
6311.08	62.0883
6328.44	61.7689
6345.79	62.5262
6363.15	61.7817
6380.51	61.75
6397.86	61.6861
6415.22	59.6817
6432.57	60.8064
6449.93	59.8708
6467.29	59.2809
6484.64	57.5896
6502	56.6375
6519.35	59.0595
6536.71	55.0668
6554.07	55.8669
6571.42	55.5398
6588.78	55.2143
6606.14	53.6422
6623.49	51.8547
