Measurement: Broad Scan, 532 nm, unoriented, Raman Data RAW
Mineral: Magnesioferrite
Locality: Langban, Sweden
Rruff sample: R060869
Chemistry: MgFe^3+^_2_O_4_
Raman shift (cm-1)	intensity
87.9768	42.5903
105.333	70.0085
122.689	609.585
140.045	1099.98
157.402	1200.2
174.758	1279.53
192.114	1348.44
209.47	1365.59
226.826	1267.41
244.183	1287.31
261.539	1335.22
278.895	1420.08
296.251	1454.88
313.607	1574.43
330.964	1756.09
348.32	1729.77
365.676	1651.49
383.032	1602.12
400.389	1548.55
417.745	1593.43
435.101	1638.94
452.457	1739.71
469.813	1839.44
487.17	1956.81
504.526	1955.94
521.882	2227.33
539.238	2305.39
556.594	2441.09
573.95	3054.54
591.307	5071.07
608.663	8555.59
626.019	7093.44
643.375	4219.83
660.731	3400.79
678.088	2995.01
695.444	2751.39
712.8	2457.28
730.156	2150.17
747.513	2002.02
764.869	1940.58
782.225	1924.68
799.581	1934.78
816.937	1937.8
834.293	1986.09
851.65	2005.2
869.006	2012.62
886.362	2034.82
903.718	2106.48
921.074	2157.69
938.431	2207.63
955.787	2270.81
973.143	2309.87
990.499	2338.84
1007.86	2399.73
1025.21	2523.16
1042.57	2600.65
1059.92	2605.86
1077.28	2655.31
1094.64	2676.36
1111.99	2749.54
1129.35	2794.26
1146.7	2858.05
1164.06	2964.61
1181.42	3163.09
1198.77	3298.76
1216.13	3442
1233.49	3380.1
1250.84	3385.49
1268.2	3368.33
1285.56	3425.3
1302.91	3451.62
1320.27	3531.98
1337.62	3598.37
1354.98	3578.85
1372.34	3540.35
1389.69	3543.51
1407.05	3491.75
1424.4	3451.63
1441.76	3458.64
1459.12	3460.35
1476.47	3417.74
1493.83	3475.59
1511.18	3520.37
1528.54	3611.25
1545.9	3634.52
1563.25	3626.71
1580.61	3779.41
1597.97	3901.01
1615.32	3875.78
1632.68	3930.24
1650.04	3921.1
1667.39	3878.77
1684.75	3944.31
1702.1	4031
1719.46	4057.14
1736.82	4088.07
1754.17	4195.99
1771.53	4251.83
1788.88	4354.05
1806.24	4347.48
1823.6	4460.89
1840.95	4514.63
1858.31	4523.18
1875.67	4529.85
1893.02	4612.61
1910.38	4590.77
1927.73	4669.51
1945.09	4709.11
1962.45	4752.59
1979.8	4747.63
1997.16	4784.27
2014.52	4814.97
2031.87	4934.34
2049.23	4912.92
2066.58	4963.37
2083.94	4975.22
2101.3	5005.76
2118.65	5062.07
2136.01	5136.7
2153.36	5129.48
2170.72	5164.4
2188.08	5323.41
2205.43	5334.05
2222.79	5315.06
2240.15	5392.46
2257.5	5483.38
2274.86	5496.5
2292.22	5550.94
2309.57	5589.58
2326.93	5809.72
2344.28	5709.55
2361.64	5826.95
2379	5833.41
2396.35	5848.91
2413.71	5920.51
2431.06	5963.7
2448.42	5967.67
2465.78	5936.87
2483.13	6040.05
2500.49	6010.63
2517.84	6162.08
2535.2	6109.14
2552.56	6168.22
2569.91	6198.76
2587.27	6244.85
2604.63	6214.39
2621.98	6309.32
2639.34	6321.27
2656.7	6352.93
2674.05	6354.85
2691.41	6444.14
2708.76	6445.68
2726.12	6541.93
2743.48	6521.68
2760.83	6486.19
2778.19	6550.89
2795.54	6640.02
2812.9	6702.12
2830.26	6745.63
2847.61	6798.99
2864.97	6812.43
2882.32	6835.2
2899.68	6878.1
2917.04	6976.81
2934.39	6941.14
2951.75	6967.98
2969.11	7006.02
2986.46	7005.93
3003.82	6992.54
3021.18	6968.39
3038.53	7084.9
3055.89	7070.19
3073.24	7098.58
3090.6	7109.37
3107.96	7183.08
3125.31	7171.71
3142.67	7191.3
3160.03	7181.71
3177.38	7205.39
3194.74	7243.04
3212.09	7242.52
3229.45	7363.82
3246.81	7335.34
3264.16	7373.93
3281.52	7349.09
3298.87	7330.58
3316.23	7469.77
3333.59	7384.76
3350.94	7416.04
3368.3	7497.72
3385.66	7533.97
3403.01	7576.55
3420.37	7553.8
3437.72	7651.97
3455.08	7687.91
3472.44	7750.84
3489.79	7735.45
3507.15	7733.48
3524.51	7732.63
3541.86	7711.71
3559.22	7848.91
3576.57	7752.07
3593.93	7853.73
3611.29	7835.19
3628.64	7840.57
3646	7850.76
3663.35	7866.13
3680.71	7831.81
3698.07	7768.36
3715.42	7816.57
3732.78	7741.68
3750.14	7719.41
3767.49	7761.93
3784.85	7757.98
3802.2	7770.97
3819.56	7775.89
3836.92	7730.15
3854.27	7758.79
3871.63	7746.49
3888.99	7717.02
3906.34	7712.43
3923.7	7668.3
3941.05	7640.38
3958.41	7671.17
3975.77	7564.05
3993.12	7540.42
4010.48	7510.26
4027.84	7533.28
4045.19	7488.44
4062.55	7511.04
4079.9	7493.16
4097.26	7452.33
4114.62	7395.56
4131.97	7438.25
4149.33	7441.44
4166.69	7449.71
4184.04	7480.59
4201.4	7443.41
4218.75	7428.75
4236.11	7424.39
4253.47	7481.3
4270.82	7538.08
4288.18	7642.39
4305.53	7636.4
4322.89	7682.83
4340.25	7740.68
4357.6	7704.16
4374.96	7737.44
4392.31	7851.75
4409.67	7774.76
4427.03	7843.6
4444.38	7868.55
4461.74	7799.88
4479.1	7948.05
4496.45	7832.11
4513.81	7836.65
4531.16	7858.91
4548.52	7914.16
4565.88	7878.02
4583.23	7941.54
4600.59	7887.24
4617.95	7856.29
4635.3	7860.77
4652.66	7915.93
4670.01	7930.47
4687.37	7888.59
4704.73	7929.05
4722.08	7950.7
4739.44	7861.62
4756.8	7893.97
4774.15	7791.77
4791.51	7887.28
4808.86	7821.53
4826.22	7864.43
4843.58	7833.3
4860.93	7877.09
4878.29	7781.04
4895.65	7724.49
4913	7711.06
4930.36	7720.63
4947.71	7703.34
4965.07	7588.86
4982.43	7573.87
4999.78	7516.97
5017.14	7530.69
5034.49	7479.16
5051.85	7463.32
5069.21	7364.82
5086.56	7388.85
5103.92	7310.57
5121.27	7205.13
5138.63	7187.74
5155.99	7172.67
5173.34	7169.84
5190.7	7185.09
5208.06	7093.61
5225.41	7112.87
5242.77	7060.93
5260.12	7012.69
5277.48	6886.26
5294.84	6919.31
5312.19	6844.87
5329.55	6764.95
5346.91	6719.06
5364.26	6729.22
5381.62	6679.27
5398.98	6593.31
5416.33	6483.13
5433.69	6492.62
5451.04	6348.77
5468.4	6380.74
5485.76	6429.55
5503.11	6334.76
5520.47	6194.3
5537.82	6312.91
5555.18	6202.31
5572.54	6081.69
5589.89	6079.37
5607.25	5934.26
5624.6	6002.18
5641.96	5916.78
5659.32	5859.7
5676.67	5819.38
5694.03	5781.99
5711.39	5723.95
5728.74	5694.66
5746.1	5651.88
5763.45	5657.05
5780.81	5538.96
5798.17	5578.3
5815.52	5466.36
5832.88	5424.33
5850.24	5375.74
5867.59	5370.63
5884.95	5337.05
5902.31	5307.06
5919.66	5210.19
5937.02	5133.75
5954.37	5160.03
5971.73	5104.33
5989.09	5113.04
6006.44	5075.83
6023.8	5063.05
6041.15	4975.9
6058.51	5138.82
6075.87	4943.02
6093.22	4973.4
6110.58	4942.68
6127.94	4874.52
6145.29	4907.31
6162.65	4883.71
6180	4871.83
6197.36	4812.18
6214.72	4760.46
6232.07	4822.2
6249.43	4720.84
6266.78	4705.81
6284.14	4664.06
6301.5	4673.23
6318.85	4602.76
6336.21	4593.28
6353.57	4603.44
6370.92	4548.25
6388.28	4496.37
6405.63	4477.4
6422.99	4421.73
6440.35	4421.26
6457.7	4364.7
6475.06	4356.09
6492.42	4300.36
6509.77	4309.22
6527.13	4240.57
6544.48	4216.93
6561.84	4106.58
6579.2	4134.03
6596.55	4110.14
6613.91	4050.36
