Mineral: Vermiculite
Locality: near Tonopah, Nevada, USA
Rruff sample: R050490
Chemistry: Mg_0.7_(Mg,Fe^3+^,Al)_6_(Si,Al)_8_O_20_(OH)_4_8H_2_O
x	intensity
153.197	0
156.09	8.235
158.983	84.988
161.875	134.528
164.768	135.879
167.661	130.264
170.553	101.432
173.446	146.615
176.339	145.987
179.232	165.407
182.124	188.891
185.017	192.071
187.91	202.348
190.802	194.627
193.695	185.524
196.588	188.359
199.48	139.181
202.373	109.49
205.266	64.58
208.159	31.216
211.051	35.557
213.944	10.911
216.837	28.403
219.729	14.71
222.622	3.161
225.515	6.376
228.408	9.274
231.3	13.203
234.193	16.191
237.086	12.544
239.978	10.518
242.871	15.785
245.764	19.706
248.656	5.195
251.549	16.136
254.442	25.923
257.335	27.428
260.227	58.615
263.12	91.957
266.013	73.631
268.905	60.213
271.798	77.219
274.691	84.671
277.583	77.411
280.476	86.729
283.369	63.709
286.262	69.778
289.154	12.648
292.047	28.667
294.94	4.548
297.832	4.174
300.725	13.641
303.618	13.811
306.51	12.343
309.403	0.042
312.296	2.195
315.189	7.133
318.081	2.272
320.974	16.14
323.867	41.558
326.759	45.057
329.652	45.06
332.545	68.547
335.438	87.861
338.33	129.817
341.223	159.556
344.116	190.515
347.008	267.706
349.901	281.554
352.794	323.337
355.686	340.109
358.579	280.662
361.472	278.947
364.365	246.102
367.257	171.071
370.15	150.214
373.043	85.812
375.935	94.283
378.828	66.285
381.721	43.046
384.613	20.543
387.506	55.454
390.399	33.033
393.292	43.651
396.184	33.368
399.077	32.218
401.97	12.672
404.862	20.551
407.755	6.894
410.648	32.767
413.54	42.702
416.433	68.723
419.326	62.328
422.219	58.059
425.111	83.278
428.004	94.08
430.897	93.823
433.789	92.339
436.682	84.512
439.575	112.21
442.467	71.883
445.36	58.689
448.253	30.727
451.146	27.718
454.038	12.895
456.931	29.224
459.824	11.627
462.716	25.35
465.609	10.331
468.502	2.879
471.394	12.607
474.287	1.635
477.18	25.023
480.073	23.023
482.965	39.351
485.858	42.891
488.751	49.939
491.643	31.935
494.536	66.499
497.429	90.373
500.321	98.908
503.214	104.202
506.107	141.823
509	129.746
511.892	170.732
514.785	184.707
517.678	209.487
520.57	188.37
523.463	244.414
526.356	251.082
529.248	306.195
532.141	295.85
535.034	290.545
537.927	304.714
540.819	274.039
543.712	254.99
546.605	254.757
549.497	234.578
552.39	250.193
555.283	204.378
558.175	201.659
561.068	188.277
563.961	131.001
566.854	136.751
569.746	118.975
572.639	97.155
575.532	78.304
578.424	63.612
581.317	42.744
584.21	37.854
587.102	27.261
589.995	16.167
592.888	7.815
595.781	19.98
598.673	24.301
601.566	0.356
604.459	8.899
607.351	7.388
610.244	17.26
613.137	14.787
616.029	4.64
618.922	2.376
621.815	6.293
624.708	3.873
627.6	12.733
630.493	12.134
633.386	13.203
636.278	19.667
639.171	39.618
642.064	83.758
644.956	50.776
647.849	113.656
650.742	108.68
653.635	154.827
656.527	202.431
659.42	241.324
662.313	290.668
665.205	341.174
668.098	411.976
670.991	398.981
673.883	434.804
676.776	407.894
679.669	382.903
682.562	364.961
685.454	315.71
688.347	283.576
691.24	260.708
694.132	230.166
697.025	195.669
699.918	173.262
702.81	120.458
705.703	100.506
708.596	69.56
711.489	42.287
714.381	41.878
717.274	32.349
720.167	34.469
723.059	21.327
725.952	15.21
728.845	8.526
731.737	17.279
734.63	2.467
737.523	16.973
740.416	22.86
743.308	15.442
746.201	6.258
749.094	24.455
751.986	11.167
754.879	14.994
757.772	15.874
760.664	16.589
763.557	31.063
766.45	12.191
769.343	36.567
772.235	40.559
775.128	22.851
778.021	6.966
780.913	22.107
783.806	22.788
786.699	26.479
789.591	27.524
792.484	13.779
795.377	25.773
798.269	24.405
801.162	0.425
804.055	31.209
806.948	10.663
809.84	22.137
812.733	7.301
815.626	18.708
818.518	10.565
821.411	6.838
824.304	22.103
827.196	8.384
830.089	37.139
832.982	29.81
835.875	13.287
838.767	18.71
841.66	18.219
844.553	41.565
847.445	37.536
850.338	31.711
853.231	33.007
856.124	38.623
859.016	42.534
861.909	31.514
864.802	0.573
867.694	38.13
870.587	42.118
873.48	23.414
876.372	47.614
879.265	29.764
882.158	39.99
885.051	23.832
887.943	1.182
890.836	20.852
893.729	22.421
896.621	44.552
899.514	34.198
902.407	44.845
905.299	36.65
908.192	29.025
911.085	22.578
913.978	24.503
916.87	46.34
919.763	29.55
922.656	25.148
925.548	20.296
928.441	20.975
931.334	39.5
934.227	18.136
937.119	25.546
940.012	19.716
942.905	18.964
945.797	11.638
948.69	14.355
951.583	11.322
954.475	18.489
957.368	1.319
960.261	16.01
963.154	6.153
966.046	1.189
968.939	9.465
971.832	8.444
974.724	1.221
977.617	10.916
980.51	4.929
983.402	40.996
986.295	26.351
989.188	0.707
992.081	18.428
994.973	5.684
997.866	5.621
1000.76	23.74
1003.65	4.716
1006.54	24.373
1009.44	10.095
1012.33	10.576
1015.22	8.931
1018.12	10.349
1021.01	22.428
1023.9	7.254
1026.79	14.441
1029.69	24.904
1032.58	18.609
1035.47	10.134
1038.36	30.507
1041.26	13.978
1044.15	31.371
1047.04	40.119
1049.93	37.747
1052.83	44.503
1055.72	24.528
1058.61	52.104
1061.51	44.03
1064.4	63.62
1067.29	60.948
1070.18	61.872
1073.08	69.056
1075.97	48.907
1078.86	44.109
1081.75	48.631
1084.65	40.902
1087.54	46.155
1090.43	65.815
1093.33	59.057
1096.22	38.302
1099.11	30.779
1102	27.05
1104.9	37.673
1107.79	30.929
1110.68	22.546
1113.57	9.578
1116.47	12.386
1119.36	13.895
1122.25	16.685
1125.14	5.675
1128.04	23.333
1130.93	18.328
1133.82	8.027
1136.72	0.351
1139.61	3.838
1142.5	2.96
1145.39	0.032
1148.29	13.291
1151.18	5.222
1154.07	16.765
1156.96	11.032
1159.86	1.372
1162.75	5.087
1165.64	8.88
1168.54	11.771
1171.43	6.908
1174.32	15.145
1177.21	3.778
1180.11	14.07
1183	4.478
1185.89	6.416
1188.78	25.786
1191.68	21.477
1194.57	22.116
1197.46	22.595
1200.36	27.408
1203.25	5.632
1206.14	19.995
1209.03	20.206
1211.93	6.83
1214.82	16.693
1217.71	39.712
1220.6	13.02
1223.5	5.243
1226.39	15.107
1229.28	2.673
1232.17	28.191
1235.07	34.84
1237.96	27.369
1240.85	8.559
1243.74	27.191
1246.64	14.378
1249.53	14.161
1252.42	25.352
1255.32	12.181
1258.21	20.027
1261.1	9.597
1263.99	19.682
1266.89	17.716
1269.78	0
