Mineral: Aeschynite-(Ce)
Locality: Hittero, Vest-Agder, Norway
Rruff sample: R080045
Chemistry: (Ce,Ca,Fe,Th)(Ti,Nb)_2_(O,OH)_6_
x	intensity
174.457	15030.2
186.028	15216.7
197.598	15843
209.169	16850.7
220.74	18471.4
232.311	20225.2
243.881	21505.4
255.452	21810.9
267.023	21097.3
278.594	20018.3
290.165	19146.6
301.736	18503.8
313.306	18060.2
324.877	17641.1
336.448	17184.7
348.019	16992.5
359.589	17305.1
371.16	17819.5
382.731	18610
394.302	19160
405.873	19445.7
417.443	19478.2
429.014	19406.8
440.585	19055.9
452.156	18141.5
463.727	16806.8
475.298	15417.7
486.868	14225.8
498.439	12964.8
510.01	11738.7
521.581	10911.7
533.152	10230.7
544.722	9740.98
556.293	9257.72
567.864	8765.07
579.435	8214.93
591.005	7665.9
602.576	7137.33
614.147	6837.96
625.718	6699.13
637.289	6707.83
648.86	6812.75
660.43	6935.07
672.001	6819.97
683.572	6544.79
695.143	5949.53
706.713	5340.15
718.284	4813.78
729.855	4298.82
741.426	3838.11
752.997	3434.98
764.567	3136.63
776.138	2891.35
787.709	2744.1
799.28	2636.09
810.851	2526.53
822.421	2453.82
833.992	2360.07
845.563	2223.52
857.134	2063.89
868.705	1858.83
880.275	1605.35
891.846	1389.49
903.417	1244.48
914.988	1156.4
926.559	1088.04
938.13	1014.02
949.7	952.725
961.271	864.832
972.842	807.827
984.413	769.812
995.984	704.216
1007.55	661.898
1019.12	632.631
1030.7	599.079
1042.27	574.396
1053.84	561.978
1065.41	547.138
1076.98	547.1
1088.55	539.243
1100.12	534.562
1111.69	542.823
1123.26	526.875
1134.83	545.354
1146.4	557.876
1157.97	558.162
1169.55	574.902
1181.12	580.878
1192.69	606.719
1204.26	634.223
1215.83	683.756
1227.4	731.381
1238.97	789.926
1250.54	887.432
1262.11	986.065
1273.68	1127.48
1285.25	1324.32
1296.82	1705.83
1308.39	2374.61
1319.97	3565.7
1331.54	5415.56
1343.11	7703.88
1354.68	9720.22
1366.25	10465.1
1377.82	9424.55
1389.39	7685.07
1400.96	6721.98
1412.53	7083.38
1424.1	8363.14
1435.67	9538.43
1447.24	10134.7
1458.82	10884.2
1470.39	13207.5
1481.96	17073.6
1493.53	20786.6
1505.1	20925.1
1516.67	15986.5
1528.24	10768.2
1539.81	9311.84
1551.38	11185.6
1562.95	14087.7
1574.52	15546.3
1586.09	14057.9
1597.66	11033.2
1609.24	8068.33
1620.81	6029.52
1632.38	4862.62
1643.95	4439.8
1655.52	4661.73
1667.09	5345.94
1678.66	6391.71
1690.23	7523.3
1701.8	8369.13
1713.37	8632.74
1724.94	8316.52
1736.52	7458.69
1748.09	6366.35
1759.66	5504.28
1771.23	5169.92
1782.8	5460.06
1794.37	6160.72
1805.94	7009.22
1817.51	7563.17
1829.08	7593.4
1840.65	7176.82
1852.22	6463.02
1863.79	5632.25
1875.36	4872.03
1886.93	4310.58
1898.51	4059.58
1910.08	4093.62
1921.65	4308.31
1933.22	4524.16
1944.79	4557.36
1956.36	4361.08
1967.93	3871.79
1979.5	3228.12
1991.07	2588.45
2002.64	2026.15
2014.21	1602.72
2025.79	1307.89
2037.36	1108.71
2048.93	986.297
2060.5	885.819
2072.07	799.787
2083.64	710.031
2095.21	654.633
2106.78	604.427
2118.35	554.192
2129.92	524.267
2141.49	509.787
2153.06	482.278
2164.63	462.361
2176.2	446.887
2187.78	433.214
2199.35	401.474
2210.92	390.926
2222.49	362.619
2234.06	355.19
2245.63	330.204
2257.2	330.625
2268.77	331.894
2280.34	326.71
2291.91	312.84
2303.48	319.222
2315.05	314.245
2326.62	319.129
2338.2	315.967
2349.77	313.659
2361.34	333.879
2372.91	335.604
2384.48	345.378
2396.05	348.956
2407.62	360.928
2419.19	357.801
2430.76	357.68
2442.33	356.005
2453.9	357.659
2465.47	348.658
2477.05	361.279
2488.62	357.856
2500.19	358.042
2511.76	356.41
2523.33	373.949
2534.9	401.748
2546.47	450.379
2558.04	511.302
2569.61	566.719
2581.18	641.793
2592.75	662.632
2604.32	617.318
2615.89	531.667
2627.47	461.215
2639.04	411.387
2650.61	377.896
2662.18	348.592
2673.75	340.394
2685.32	327.041
2696.89	321.884
2708.46	333.572
2720.03	331.887
2731.6	342.279
2743.17	362.754
2754.74	375.124
2766.32	387.359
2777.89	386.316
2789.46	369.533
2801.03	334.404
2812.6	301.852
2824.17	276.217
2835.74	233.438
2847.31	218.485
2858.88	195.797
2870.45	177.17
2882.02	168.475
2893.59	154.392
2905.16	148.946
2916.74	141.736
2928.31	138.571
2939.88	132.484
2951.45	130.144
2963.02	117.15
2974.59	115.661
2986.16	102.979
2997.73	102.339
3009.3	95.8394
3020.87	88.3824
3032.44	84.4277
3044.01	74.334
3055.59	77.2789
3067.16	72.4096
3078.73	73.0553
3090.3	69.7128
3101.87	66.5944
3113.44	53.7572
3125.01	57.7853
3136.58	53.5227
3148.15	54.2955
3159.72	45.6457
3171.29	50.0882
3182.86	38.4905
3194.43	42.4538
3206.01	43.5996
3217.58	44.2139
3229.15	34.9367
3240.72	46.5145
3252.29	33.0952
3263.86	41.372
3275.43	45.7586
3287	41.16
3298.57	59.2799
3310.14	83.9035
3321.71	104.69
3333.28	138.39
3344.86	147.5
3356.43	162.518
3368	171.106
3379.57	148.759
3391.14	129.986
3402.71	116.792
3414.28	125.863
3425.85	140.495
3437.42	162.581
3448.99	176.294
3460.56	214.983
3472.13	236.883
3483.7	241.392
3495.28	272.591
3506.85	316.264
3518.42	293.815
3529.99	252.254
3541.56	184.886
3553.13	179.749
3564.7	160.984
3576.27	157.388
3587.84	142.703
3599.41	114.466
3610.98	89.1173
3622.55	84.5509
3634.12	67.8588
3645.7	76.1354
3657.27	72.0515
3668.84	74.9647
3680.41	58.1105
3691.98	51.5725
3703.55	38.4302
3715.12	38.9783
3726.69	24.0661
3738.26	18.2774
3749.83	15.8063
3761.4	15.4505
3772.97	20.6422
3784.55	14.303
3796.12	18.7247
3807.69	14.3262
3819.26	16.8332
3830.83	13.6483
3842.4	15.4868
3853.97	15.0698
3865.54	17.3239
3877.11	16.57
3888.68	6.74266
3900.25	16.6663
3911.82	11.4144
3923.4	20.9168
3934.97	18.4753
3946.54	12.3353
3958.11	18.2741
3969.68	12.1712
3981.25	9.94013
3992.82	1.84945
4004.39	5.74304
4015.96	5.65587
4027.53	8.43604
4039.1	3.12871
4050.67	6.1397
4062.24	9.79383
4073.82	12.9987
4085.39	7.00889
4096.96	4.61699
4108.53	5.67331
4120.1	8.18752
4131.67	14.6658
4143.24	0.381248
4154.81	14.6509
4166.38	-2.35052
4177.95	-5.63393
4189.52	2.46372
4201.1	9.66784
4212.67	-1.06231
4224.24	13.385
4235.81	2.16478
4247.38	-0.0279714
4258.95	6.21038
4270.52	6.94233
4282.09	3.37077
4293.66	-0.797225
4305.23	6.04544
4316.8	7.10998
4328.37	2.85164
4339.94	6.43578
4351.52	0.992865
4363.09	2.66069
4374.66	2.64802
