Mineral: Aeschynite-(Ce)
Locality: Hittero, Vest-Agder, Norway
Rruff sample: R080045
Chemistry: (Ce,Ca,Fe,Th)(Ti,Nb)_2_(O,OH)_6_
x	intensity
202.141	8894.78
219.497	9766.19
236.853	10971.7
254.209	11693.9
271.565	12096.5
288.921	12139.1
306.278	12220.3
323.634	12271.1
340.99	12367
358.346	14071.5
375.702	17844.8
393.059	23348.4
410.415	27132.2
427.771	29067.1
445.127	29444.4
462.483	29850.2
479.84	30936.1
497.196	34513.2
514.552	39209.2
531.908	43221.8
549.264	42006.5
566.621	39850.4
583.977	37112.8
601.333	36442.7
618.689	37915.3
636.045	40468.2
653.402	38230.7
670.758	33168.5
688.114	29593.1
705.47	29695.7
722.827	31057.6
740.183	29123.7
757.539	25272.8
774.895	22857.5
792.251	22432.6
809.607	22188.1
826.964	20068.9
844.32	15678.5
861.676	11390.2
879.032	8458.72
896.389	6673.68
913.745	5563.1
931.101	4831.03
948.457	4233.57
965.813	3737.86
983.17	3362.37
1000.53	3041.87
1017.88	2840.88
1035.24	2664.17
1052.59	2498.24
1069.95	2319.05
1087.31	2194.69
1104.66	2003.15
1122.02	1865.95
1139.38	1749.7
1156.73	1585.72
1174.09	1501.13
1191.44	1384.7
1208.8	1263.15
1226.16	1198.4
1243.51	1121.92
1260.87	1064.67
1278.22	987.165
1295.58	943.698
1312.94	891.399
1330.29	835.991
1347.65	812.264
1365.01	776.688
1382.36	751.118
1399.72	736.357
1417.08	710.436
1434.43	683.137
1451.79	696.765
1469.14	695.94
1486.5	690.549
1503.86	681.113
1521.21	681.294
1538.57	694.942
1555.92	705.763
1573.28	717.529
1590.64	750.268
1607.99	738.846
1625.35	763.043
1642.7	738.28
1660.06	724.372
1677.42	739.295
1694.77	741.744
1712.13	778.059
1729.49	827.543
1746.84	863.744
1764.2	889.642
1781.56	977.413
1798.91	1117.16
1816.27	1255.62
1833.62	1238.01
1850.98	1144.59
1868.34	1061.36
1885.69	1049.68
1903.05	1137.04
1920.4	1269.15
1937.76	1326.9
1955.12	1423.55
1972.47	1467.07
1989.83	1539.7
2007.19	1635.86
2024.54	1668.9
2041.9	1648.58
2059.25	1634.17
2076.61	1612.92
2093.97	1619.17
2111.32	1661.43
2128.68	1710.18
2146.03	1762.55
2163.39	1853.31
2180.75	2003.55
2198.1	2165.84
2215.46	2317.03
2232.82	2476.18
2250.17	2508.32
2267.53	2526.7
2284.89	2330.58
2302.24	1889.39
2319.6	1500.83
2336.95	1231.31
2354.31	1051.99
2371.67	959.86
2389.02	923.835
2406.38	849.844
2423.73	780.537
2441.09	733.801
2458.45	657.998
2475.8	596.612
2493.16	577.633
2510.51	545.429
2527.87	469.516
2545.23	436.586
2562.58	420.713
2579.94	393.186
2597.3	401.893
2614.65	369.933
2632.01	353.975
2649.36	340.239
2666.72	315.705
2684.08	318.634
2701.43	301.296
2718.79	292.85
2736.15	289.305
2753.5	296.584
2770.86	283.256
2788.22	291.067
2805.57	285.469
2822.93	287.401
2840.28	276.088
2857.64	273.128
2875	274.641
2892.35	278.806
2909.71	297.357
2927.06	302.757
2944.42	317.464
2961.78	317.171
2979.13	317.534
2996.49	349.62
3013.84	361.004
3031.2	412.382
3048.56	434.934
3065.91	472.594
3083.27	494.813
3100.63	541.646
3117.98	583.233
3135.34	644.537
3152.7	693.522
3170.05	819.622
3187.41	965.407
3204.76	1142.95
3222.12	1335.86
3239.48	1634.32
3256.83	2104.86
3274.19	2932.88
3291.54	3515.61
3308.9	3730.25
3326.26	3726.16
3343.61	4033.57
3360.97	4658.57
3378.32	5575.8
3395.68	7275.52
3413.04	9973.6
3430.39	12755.8
3447.75	16365.9
3465.11	20922.1
3482.46	23668.9
3499.82	24575.5
3517.18	29680.5
3534.53	35481.5
3551.89	34376.6
3569.24	36933.7
3586.6	46694.8
3603.96	49728.3
3621.31	47810.1
3638.67	49454.4
3656.03	54159.8
3673.38	51940.1
3690.74	46326
3708.09	40952.9
3725.45	35033.7
3742.81	31239.1
3760.16	31176
3777.52	32737.9
3794.87	34761.8
3812.23	35193
3829.59	34410.5
3846.94	36788.1
3864.3	40826.3
3881.66	44153.6
3899.01	42939.5
3916.37	34843
3933.72	25094.3
3951.08	18084.3
3968.44	13257.1
3985.79	9808.27
4003.15	7760.12
4020.51	6500.24
4037.86	5639.94
4055.22	4862.13
4072.57	4318.8
4089.93	3946.02
4107.29	3632.75
4124.64	3372.96
4142	3053.06
4159.35	2828.5
4176.71	2580.94
4194.07	2423.16
4211.42	2239.2
4228.78	2029.22
4246.14	1864.65
4263.49	1644.58
4280.85	1489.77
4298.2	1291.35
4315.56	1171.07
4332.92	1064.53
4350.27	1017.53
4367.63	911.382
4384.98	819.377
4402.34	762.721
4419.7	730.205
4437.05	689.58
4454.41	652.605
4471.77	598.315
4489.12	581.35
4506.48	530.005
4523.84	515.053
4541.19	479.648
4558.55	483.567
4575.9	455.137
4593.26	438.904
4610.62	397.291
4627.97	387.91
4645.33	365.028
4662.69	357.33
4680.04	343.075
4697.4	341.799
4714.75	360.196
4732.11	349.166
4749.47	347.357
4766.82	332.653
4784.18	320.973
4801.53	301.804
4818.89	280.837
4836.25	268.272
4853.6	269.841
4870.96	268.149
4888.31	277.127
4905.67	262.178
4923.03	262.378
4940.38	242.38
4957.74	229.518
4975.1	226.203
4992.45	211.776
5009.81	213.393
5027.16	222.531
5044.52	214.297
5061.88	213.181
5079.23	231.891
5096.59	212.239
5113.95	187.49
5131.3	186.13
5148.66	198.274
5166.01	189.178
5183.37	198.139
5200.73	207.425
5218.08	207.582
5235.44	241.149
5252.8	251.005
5270.15	268.305
5287.51	292.299
5304.86	374.315
5322.22	493.61
5339.58	701.432
5356.93	959.495
5374.29	1117.45
5391.65	1153.6
5409	1182.92
5426.36	1190.67
5443.71	1196.68
5461.07	1349.03
5478.43	1442.25
5495.78	1786.97
5513.14	2620.89
5530.49	3378.58
5547.85	3845.93
5565.21	4451.71
5582.56	5286.89
5599.92	4454.58
5617.27	3083.25
5634.63	2921.6
5651.99	2522.5
5669.34	1725.07
5686.7	1479.5
5704.06	1390.93
5721.41	1157.66
5738.77	758.962
5756.12	605.493
5773.48	571.629
5790.84	514.142
5808.19	461.864
5825.55	428.505
5842.91	405.113
5860.26	401.82
5877.62	405.028
5894.98	374.331
5912.33	360.814
5929.69	332.407
5947.04	337.462
5964.4	327.705
5981.76	340.771
5999.11	338.534
6016.47	360.356
6033.82	359.416
6051.18	393.664
6068.54	472.418
6085.89	703.745
6103.25	880.102
6120.6	854.852
6137.96	953.524
6155.32	1103.96
6172.67	1545.62
6190.03	2036.27
6207.39	2252.97
6224.74	2296.6
6242.1	3058.13
6259.45	3644.61
6276.81	3870.93
6294.17	3810.39
6311.52	3529.17
6328.88	3118.95
6346.24	3516.1
6363.59	4614.41
6380.95	5112.7
6398.31	4000.54
6415.66	3670.63
6433.02	4532.43
6450.37	4029.67
6467.73	4319.29
6485.09	3553.14
6502.44	2633.51
6519.8	2377.53
6537.15	2805.27
6554.51	3071.25
6571.87	2975.67
6589.22	2686.47
6606.58	2375
6623.94	2313.11
