Mineral: Ilmenite
Locality: Faraday Property, Bancroft District, Ontario, Canada
Rruff sample: R060149
Chemistry: Fe^2+^Ti^4+^O_3_
x	intensity
146.189	0
149.082	1.07643
151.975	2.84611
154.867	3.27762
157.76	0.270472
160.653	1.24127
163.546	0.287539
166.438	0.975382
169.331	1.00497
172.224	1.12851
175.116	1.33725
178.009	0.399906
180.902	0.061993
183.794	0.314714
186.687	0.045298
189.58	0.075264
192.472	0.481834
195.365	0.101881
198.258	0.301956
201.151	0.042528
204.043	0.64702
206.936	0.746553
209.829	0.454451
212.721	0.420982
215.614	1.09244
218.507	1.57302
221.4	3.02216
224.292	4.05551
227.185	5.11962
230.078	3.62505
232.97	5.0313
235.863	4.06274
238.756	4.7102
241.649	5.32086
244.541	4.13305
247.434	4.62645
250.327	4.05779
253.219	5.16901
256.112	4.1015
259.005	3.67856
261.897	1.14008
264.79	0.743366
267.683	0.290165
270.575	0.317842
273.468	0.754951
276.361	0.499685
279.254	0.006401
282.146	0.378813
285.039	0.282391
287.932	0.995138
290.825	1.02944
293.717	0.714733
296.61	1.47033
299.503	1.64856
302.395	1.43343
305.288	1.57605
308.181	1.38581
311.073	2.06776
313.966	2.82555
316.859	3.01756
319.752	5.50562
322.644	3.50885
325.537	5.97396
328.43	5.89831
331.322	5.68605
334.215	3.86903
337.108	2.81627
340	2.69778
342.893	1.58949
345.786	0.955894
348.678	0.706982
351.571	0.986536
354.464	0.817928
357.357	1.01699
360.249	1.12694
363.142	1.74128
366.035	4.05015
368.928	3.73214
371.82	3.15551
374.713	1.40189
377.606	0.868801
380.498	0.441669
383.391	0.570514
386.284	-0.0164886
389.176	0.51679
392.069	0.335321
394.962	0.171686
397.854	0.164063
400.747	1.2166
403.64	0.679327
406.533	1.18148
409.425	0.643015
412.318	0.899982
415.211	0.671541
418.103	0.361904
420.996	0.729607
423.889	0.405048
426.782	1.37058
429.674	1.42492
432.567	0.988422
435.46	1.73746
438.352	1.96932
441.245	2.81269
444.138	2.73056
447.031	2.59823
449.923	2.76067
452.816	2.16735
455.709	2.27422
458.601	1.67847
461.494	1.1783
464.387	0.768556
467.279	0.864113
470.172	0.821072
473.065	1.21877
475.957	0.756458
478.85	0.697979
481.743	0.499718
484.636	0.979274
487.528	1.1375
490.421	0.292797
493.314	0.618122
496.206	0.630907
499.099	0.07962
501.992	0.343708
504.885	0.947466
507.777	1.06434
510.67	0.608427
513.563	0.875259
516.455	1.38602
519.348	0.632343
522.241	0.973032
525.134	0.014414
528.026	0.932402
530.919	1.17907
533.812	0.360779
536.704	0.821739
539.597	0.828896
542.49	0.622471
545.382	0.046797
548.275	0.709856
551.168	0.138071
554.061	0.302307
556.953	1.32019
559.846	1.09328
562.739	0.818087
565.631	1.6642
568.524	1.81436
571.417	1.41639
574.309	1.87295
577.202	1.12383
580.095	2.23767
582.987	1.56552
585.88	2.54866
588.773	1.51026
591.666	1.89936
594.558	2.2275
597.451	2.09068
600.344	1.55204
603.236	0.737679
606.129	0.285614
609.022	0.839127
611.915	0.27408
614.807	0.398211
617.7	0.481459
620.593	0.430157
623.485	0.457205
626.378	1.46868
629.271	0.973682
632.163	0.542696
635.056	1.15317
637.949	1.97168
640.842	1.40924
643.734	2.84986
646.627	2.50215
649.52	3.36641
652.412	5.45548
655.305	5.62331
658.198	6.29404
661.091	8.27702
663.983	9.36233
666.876	12.0664
669.769	14.0234
672.661	16.6918
675.554	17.471
678.447	17.9643
681.34	18.5967
684.232	15.4723
687.125	13.6848
690.018	11.5938
692.91	10.8194
695.803	7.88572
698.696	7.74264
701.588	5.6906
704.481	3.50199
707.374	3.31364
710.266	3.3407
713.159	3.2766
716.052	3.20155
718.945	2.18352
721.837	2.45613
724.73	1.94384
727.623	1.04143
730.515	0.920515
733.408	1.14327
736.301	1.45163
739.193	1.27666
742.086	0.702896
744.979	1.17786
747.872	0.945045
750.764	0.369118
753.657	0.406099
756.55	1.01444
759.442	0.39032
762.335	0.004244
765.228	0.470457
768.121	0.476145
771.013	0.834545
773.906	0.004988
776.799	0.025631
779.691	0.584665
782.584	0.983534
785.477	1.24044
788.37	0.129473
791.262	0.506136
794.155	1.48395
797.048	0.950693
799.94	0.157766
802.833	1.48735
805.726	0.883564
808.619	1.41028
811.511	0.961842
814.404	0.637363
817.297	0.985802
820.189	1.79932
823.082	1.19756
825.975	0.886774
828.867	0.843315
831.76	1.70842
834.653	2.6637
837.545	2.05662
840.438	2.07542
843.331	3.01752
846.224	2.12899
849.116	2.51704
852.009	2.40424
854.902	3.05565
857.794	2.43603
860.687	2.06874
863.58	2.85403
866.472	1.41995
869.365	2.26784
872.258	2.56981
875.151	0.905691
878.043	1.20812
880.936	0.874197
883.829	0.805891
886.721	1.21197
889.614	0.736633
892.507	1.10452
895.399	2.31293
898.292	0.740601
901.185	0.337709
904.078	1.10893
906.97	0.457155
909.863	1.0015
912.756	0.581415
915.649	0.087231
918.541	1.27823
921.434	0.009722
924.327	0.383718
927.219	0.835261
930.112	0.617943
933.005	0.957398
935.897	0.563194
938.79	1.2298
941.683	0.908711
944.576	0.066506
947.468	0.066966
950.361	0.103976
953.254	0.305569
956.146	1.72218
959.039	0.319106
961.932	1.31292
964.824	0.994418
967.717	1.42155
970.61	0.503176
973.503	0.240007
976.395	0.821548
979.288	0.890116
982.181	0.118579
985.073	1.46525
987.966	1.19277
990.859	0.278329
993.751	0.939363
996.644	0.318504
999.537	0.364012
1002.43	1.53099
1005.32	0.61854
1008.22	1.04732
1011.11	1.12608
1014	0.714246
1016.89	0.793726
1019.79	0.092321
1022.68	0.735687
1025.57	1.13048
1028.46	0.678794
1031.36	0.68183
1034.25	0.997632
1037.14	0.668519
1040.04	1.84326
1042.93	1.76157
1045.82	0.358633
1048.71	1.16545
1051.61	0.097735
1054.5	1.55918
1057.39	0.623468
1060.28	0.90751
1063.18	1.42386
1066.07	1.92904
1068.96	0.238643
1071.85	0.944175
1074.75	0.863149
1077.64	0.231897
1080.53	1.82172
1083.42	0.743616
1086.32	1.05671
1089.21	0.853743
1092.1	0.83334
1095	0.719671
1097.89	1.31614
1100.78	0.557884
1103.67	0.714602
1106.57	1.00261
1109.46	0.482444
1112.35	0.30585
1115.24	0.373958
1118.14	0.921535
1121.03	0.030791
1123.92	1.66345
1126.82	0.179925
1129.71	1.06274
1132.6	1.2567
1135.49	0.209001
1138.39	0.280285
1141.28	1.03985
1144.17	0.597796
1147.07	0.813737
1149.96	1.21739
1152.85	0.246337
1155.74	0.496321
1158.64	1.2241
1161.53	0.28791
1164.42	1.26373
1167.31	0.732411
1170.21	1.63094
1173.1	0.735079
1175.99	0.689321
1178.88	0.101916
1181.78	0.802158
1184.67	0.122073
1187.56	0.939566
1190.45	0.526628
1193.35	0.108693
1196.24	1.07049
1199.13	0.511969
1202.03	1.40629
1204.92	0.790483
1207.81	1.45482
1210.7	0.780016
1213.6	0.170393
1216.49	1.66259
1219.38	0.460354
1222.28	1.09974
1225.17	1.82997
1228.06	0.413217
1230.95	0.376195
1233.85	0.866101
1236.74	0.656932
1239.63	1.11953
1242.52	0.852398
1245.42	0.902943
1248.31	0.511647
1251.2	0.346265
1254.1	0.954494
1256.99	0.50353
1259.88	2.49287
1262.77	0.600711
1265.67	0.847725
1268.56	2.10345
1271.45	1.527
1274.34	1.19526
1277.24	1.6525
1280.13	0.462007
1283.02	0.524198
1285.91	1.69922
1288.81	2.47637
1291.7	0.97681
1294.59	0.858077
1297.48	0.796089
1300.38	0.993436
