Measurement: Broad Scan, 780 nm, unoriented, Raman Data Processed
Mineral: Ilmenite
Locality: Faraday Property, Bancroft District, Ontario, Canada
Rruff sample: R060149
Chemistry: Fe^2+^Ti^4+^O_3_
Raman shift (cm-1)	intensity
154.73	21.7845
166.301	21.6947
177.872	20.7404
189.443	20.8367
201.014	22.902
212.584	25.6335
224.155	28.1114
235.726	23.3162
247.297	21.2935
258.868	20.5361
270.438	20.0174
282.009	19.9581
293.58	18.714
305.151	19.3834
316.722	18.8962
328.292	19.3558
339.863	18.7077
351.434	19.0171
363.005	20.8409
374.576	19.3485
386.146	16.7246
397.717	15.8074
409.288	15.4223
420.859	15.4394
432.43	14.8585
444	14.9092
455.571	14.8964
467.142	14.7656
478.713	14.5904
490.284	14.6111
501.854	14.2402
513.425	14.2159
524.996	14.5613
536.567	15.0544
548.138	15.2
559.708	15.2449
571.279	15.7226
582.85	16.4835
594.421	17.0973
605.992	17.8967
617.562	19.1533
629.133	21.6554
640.704	26.8568
652.275	36.2872
663.846	48.6536
675.416	58.1654
686.987	50.7463
698.558	38.376
710.129	29.8111
721.7	25.257
733.27	22.132
744.841	20.5389
756.412	19.65
767.983	19.1085
779.554	18.5452
791.124	18.6463
802.695	18.7059
814.266	18.2949
825.837	18.3384
837.408	18.2395
848.978	18.4203
860.549	17.4847
872.12	17.161
883.691	15.5927
895.262	14.7255
906.832	14.9928
918.403	13.3973
929.974	13.4678
941.545	13.2121
953.116	12.8255
964.686	12.9082
976.257	12.5234
987.828	12.4748
999.399	12.2936
1010.97	11.8374
1022.54	11.9687
1034.11	11.8905
1045.68	12.1362
1057.25	11.4908
1068.82	11.4662
1080.39	11.3301
1091.96	11.4257
1103.54	10.845
1115.11	10.7431
1126.68	10.7361
1138.25	10.4099
1149.82	10.1814
1161.39	10.4908
1172.96	9.91884
1184.53	10.1448
1196.1	10.1061
1207.67	10.4177
1219.24	10.4108
1230.82	9.97441
1242.39	10.1268
1253.96	10.3628
1265.53	10.1726
1277.1	10.8022
1288.67	10.5355
1300.24	11.1046
1311.81	11.2236
1323.38	11.4822
1334.95	11.7533
1346.52	11.9224
1358.09	11.7607
1369.66	11.9639
1381.23	11.7548
1392.81	12.101
1404.38	11.9878
1415.95	11.9469
1427.52	11.8667
1439.09	11.7531
1450.66	11.597
1462.23	11.3195
1473.8	11.389
1485.37	11.2179
1496.94	10.905
1508.51	10.3122
1520.09	10.3809
1531.66	10.45
1543.23	10.4297
1554.8	10.2598
1566.37	10.2129
1577.94	10.1088
1589.51	9.81916
1601.08	10.1817
1612.65	10.052
1624.22	9.99904
1635.79	9.78341
1647.36	9.34311
1658.93	9.75892
1670.51	9.22724
1682.08	9.60151
1693.65	9.55254
1705.22	9.33663
1716.79	9.07959
1728.36	9.26394
1739.93	8.69374
1751.5	8.74978
1763.07	8.68588
1774.64	8.62501
1786.21	8.80057
1797.78	8.57074
1809.36	8.54889
1820.93	8.24843
1832.5	8.08597
1844.07	8.13883
1855.64	7.94928
1867.21	8.20823
1878.78	7.779
1890.35	7.40238
1901.92	7.62281
1913.49	7.36003
1925.06	7.32867
1936.63	7.57927
1948.2	7.47789
1959.78	7.10208
1971.35	6.94806
1982.92	6.94275
1994.49	6.68629
2006.06	6.66792
2017.63	6.70045
2029.2	6.47929
2040.77	6.75286
2052.34	6.46621
2063.91	6.13597
2075.48	6.15651
2087.05	6.06376
2098.62	5.90853
2110.2	5.93157
2121.77	5.56432
2133.34	5.49678
2144.91	5.32297
2156.48	5.52122
2168.05	5.05301
2179.62	5.18779
2191.19	5.33295
2202.76	4.90728
2214.33	5.05203
2225.9	4.6005
2237.47	4.6962
2249.05	4.7705
2260.62	4.68161
2272.19	4.72023
2283.76	4.73132
2295.33	4.42045
2306.9	4.49876
2318.47	4.24864
2330.04	4.20109
2341.61	4.21263
2353.18	3.78198
2364.75	3.90255
2376.32	3.97305
2387.89	4.30188
2399.47	3.7612
2411.04	3.87043
2422.61	3.99155
2434.18	3.41114
2445.75	3.33713
2457.32	3.31714
2468.89	3.51437
2480.46	3.10746
2492.03	3.31408
2503.6	3.24357
2515.17	3.06439
2526.74	2.95181
2538.32	2.94889
2549.89	3.22768
2561.46	2.84143
2573.03	2.90679
2584.6	2.68628
2596.17	2.75922
2607.74	2.41048
2619.31	2.24705
2630.88	2.18221
2642.45	2.26708
2654.02	2.20107
2665.59	2.33224
2677.16	1.92596
2688.74	1.88913
2700.31	1.95862
2711.88	2.13905
2723.45	1.97746
2735.02	1.70349
2746.59	2.0107
2758.16	1.9898
2769.73	1.7283
2781.3	1.55858
2792.87	1.74903
2804.44	1.49731
2816.01	1.65251
2827.59	1.52774
2839.16	1.47634
2850.73	1.24476
2862.3	1.5021
2873.87	1.73816
2885.44	1.14535
2897.01	1.19027
2908.58	1.00676
2920.15	1.354
2931.72	0.907942
2943.29	1.16015
2954.86	0.96187
2966.43	0.829791
2978.01	1.03502
2989.58	0.760699
3001.15	0.677407
3012.72	0.779455
3024.29	0.701701
3035.86	0.729825
3047.43	0.826558
3059	0.789797
3070.57	0.715152
3082.14	0.320951
3093.71	0.801496
3105.28	0.641707
3116.86	0.58424
3128.43	0.39509
3140	0.413776
3151.57	0.429256
3163.14	0.552357
3174.71	0.368401
3186.28	0.530969
3197.85	0.477943
3209.42	0.600226
3220.99	0.422643
3232.56	0.693196
3244.13	0.341734
3255.7	0.529463
3267.28	0.340715
3278.85	0.465714
3290.42	0.16877
3301.99	0.0473653
3313.56	0.466206
3325.13	0.351435
3336.7	0.42301
3348.27	0.0848085
3359.84	0.535863
3371.41	0.686611
3382.98	0.412125
3394.55	0.454984
3406.12	0.379991
3417.7	0.192178
3429.27	0.0562251
3440.84	0.371145
3452.41	0.278356
3463.98	0.599336
3475.55	0.0343089
3487.12	0.023173
3498.69	0.584294
3510.26	0.402058
3521.83	-0.05748
3533.4	0.299355
3544.97	0.341777
3556.55	0.0421134
3568.12	0.325593
3579.69	0.439136
3591.26	-0.155374
3602.83	0.0331108
3614.4	0.172976
3625.97	-0.459513
3637.54	-0.428302
3649.11	-0.104816
3660.68	0.380099
3672.25	-0.167089
3683.82	-0.20088
3695.39	-0.561936
3706.97	0.114986
3718.54	-0.0986714
3730.11	0.176903
3741.68	0.726786
3753.25	0.53175
3764.82	-0.0260039
3776.39	0.137846
3787.96	-0.246145
3799.53	0.358473
3811.1	0.23711
3822.67	0.639242
3834.24	-0.313946
3845.82	0.0481041
3857.39	0.35839
3868.96	0.0970761
3880.53	-0.088082
3892.1	0.123459
3903.67	0.487996
3915.24	-0.457055
3926.81	-0.403529
3938.38	-0.203878
3949.95	-0.310599
3961.52	0.14713
3973.09	0.171479
3984.66	0.128255
3996.24	0.410771
4007.81	0.112073
4019.38	-0.231222
4030.95	-0.193415
4042.52	0.421785
4054.09	0.418433
4065.66	0.0668155
4077.23	0.122822
4088.8	0.277887
4100.37	0.524384
4111.94	-0.525821
4123.52	0.0721378
4135.09	-0.51564
4146.66	0.402579
4158.23	0.101748
4169.8	-0.538406
4181.37	-0.552712
4192.94	0.0555591
4204.51	0.428623
4216.08	0.276697
4227.65	-0.476623
4239.22	0.368023
4250.79	-0.47248
4262.36	0.0413153
4273.94	0.287105
4285.51	0.0594875
4297.08	0.0331135
4308.65	-0.0390292
4320.22	0.136036
4331.79	-0.328898
4343.36	-0.293542
4354.93	-0.300383
4366.5	-0.0395823
4378.07	-0.218056
