Mineral: Magnesiochromite
Locality: Benbow mine, Stillwater Complex, Mount Wood area, Stillwater County, Montana, USA
Rruff sample: R060797
Chemistry: MgCr^3+^_2_O_4_
x	intensity
159.61	0
162.503	35.31
165.396	12.902
168.288	54.475
171.181	5.305
174.074	14.181
176.966	21.816
179.859	27.993
182.752	27.118
185.645	23.057
188.537	37.777
191.43	28.144
194.323	11.727
197.215	32.929
200.108	16.428
203.001	23.239
205.893	38.819
208.786	5.678
211.679	2.758
214.572	0.961
217.464	4.018
220.357	1.67
223.25	7.349
226.142	0.512
229.035	2.272
231.928	12.477
234.82	8.083
237.713	5.303
240.606	11.399
243.498	2.382
246.391	8.867
249.284	0.523
252.176	28.286
255.069	8.842
257.962	6.407
260.855	2.918
263.747	2.303
266.64	11.549
269.533	17.431
272.425	18.751
275.318	23.514
278.211	13.624
281.103	13.029
283.996	9.247
286.889	6.406
289.782	6.003
292.674	8.359
295.567	12.108
298.46	35.399
301.352	1.715
304.245	3.574
307.138	2.895
310.03	6.801
312.923	9.369
315.816	8.742
318.709	8.459
321.601	15.681
324.494	21.092
327.387	36.718
330.279	4.368
333.172	1.244
336.065	11.799
338.957	5.837
341.85	4.267
344.743	12.297
347.635	6.421
350.528	9.379
353.421	8.099
356.314	16.936
359.206	17.242
362.099	10.333
364.992	6.353
367.884	17.249
370.777	1.934
373.67	12.35
376.562	5.525
379.455	20.086
382.348	16.417
385.241	14.74
388.133	6.473
391.026	2.47
393.919	3.395
396.811	12.779
399.704	21.432
402.597	14.021
405.49	1.69
408.382	9.99
411.275	0.922
414.168	5.92
417.06	7.306
419.953	1.523
422.846	3.529
425.738	8.643
428.631	13.317
431.524	7.117
434.417	3.568
437.309	16.889
440.202	6.631
443.095	17.15
445.987	9.299
448.88	10.795
451.773	16.199
454.665	29.869
457.558	10.617
460.451	3.684
463.343	41.786
466.236	25.547
469.129	21.387
472.022	19.147
474.914	53.433
477.807	13.369
480.7	44.707
483.592	7.693
486.485	26.297
489.378	22.505
492.27	17.087
495.163	53.923
498.056	55.524
500.948	72.562
503.841	86.438
506.734	84.082
509.627	99.942
512.519	115.937
515.412	99.175
518.305	110.42
521.197	128.721
524.09	171.963
526.983	200.21
529.875	193.882
532.768	222.747
535.661	248.32
538.554	263.996
541.446	295.723
544.339	341.455
547.232	352.824
550.124	359.77
553.017	361.44
555.91	380.168
558.802	392.405
561.695	374.344
564.588	405.664
567.481	425.009
570.373	411.506
573.266	433.647
576.159	437.002
579.051	413.799
581.944	398.971
584.837	365.982
587.729	355.164
590.622	328.064
593.515	293.88
596.407	280.774
599.3	258.83
602.193	251.486
605.086	199.448
607.978	184.837
610.871	137.346
613.764	119.557
616.656	134.675
619.549	88.836
622.442	82.211
625.334	86.371
628.227	65.422
631.12	80.331
634.013	103.785
636.905	130.198
639.798	170.137
642.691	204.89
645.583	211.039
648.476	217.968
651.369	231.591
654.261	246.821
657.154	240.095
660.047	249.242
662.94	248.487
665.832	277.541
668.725	301.696
671.618	315.618
674.51	341.809
677.403	359.629
680.296	394.98
683.188	423.778
686.081	514.495
688.974	484.219
691.867	496.615
694.759	528.656
697.652	501.549
700.545	495.154
703.437	462.399
706.33	401.843
709.223	371.487
712.115	305.154
715.008	265.598
717.901	247.653
720.794	191.96
723.686	164.817
726.579	118.66
729.472	102.892
732.364	84.551
735.257	84.065
738.15	62.787
741.042	49.584
743.935	23.522
746.828	48.793
749.721	37.92
752.613	31.763
755.506	15.697
758.399	2.288
761.291	0.907
764.184	7.945
767.077	1.107
769.969	5.438
772.862	8.975
775.755	6.573
778.648	8.925
781.54	0.855
784.433	10.84
787.326	22.724
790.218	4.203
793.111	19.037
796.004	2.788
798.896	24.663
801.789	29.587
804.682	5.325
807.574	16.372
810.467	7.91
813.36	18.05
816.253	0.5
819.145	18.692
822.038	1.564
824.931	1.278
827.823	13.308
830.716	13.431
833.609	17.981
836.501	12.726
839.394	0.778
842.287	18.988
845.18	9.775
848.072	11.916
850.965	0.028
853.858	10.405
856.75	10.995
859.643	0.889
862.536	3.584
865.428	18.802
868.321	16.716
871.214	17.059
874.106	3.682
876.999	26.317
879.892	5
882.784	2.998
885.677	0.018
888.57	6.534
891.463	19.388
894.355	9.185
897.248	12.197
900.141	6.85
903.033	15.522
905.926	10.686
908.819	16.463
911.711	22.576
914.604	5.156
917.497	21.469
920.39	1.215
923.282	10.54
926.175	0.913
929.068	19.03
931.96	7.798
934.853	3.816
937.746	19.06
940.638	25.673
943.531	5.156
946.424	30.71
949.317	36.816
952.209	32.168
955.102	23.486
957.995	25
960.887	38.908
963.78	11.942
966.673	0.183
969.565	6.275
972.458	3.622
975.351	1.557
978.244	9.975
981.136	19.013
984.029	15.259
986.922	11.236
989.814	26.094
992.707	12.242
995.6	22.765
998.492	23.224
1001.38	12.6
1004.28	15.752
1007.17	16.576
1010.06	15.423
1012.96	1.63
1015.85	17.912
1018.74	5.03
1021.63	8.944
1024.53	32.021
1027.42	57.645
1030.31	28.466
1033.2	30.858
1036.1	24.174
1038.99	29.35
1041.88	42.389
1044.78	31.773
1047.67	35.888
1050.56	12.569
1053.45	10.637
1056.35	38.601
1059.24	33.473
1062.13	50.558
1065.03	50.445
1067.92	29.782
1070.81	56.25
1073.7	27.182
1076.6	50.093
1079.49	37.049
1082.38	30.275
1085.27	18.445
1088.17	34.998
1091.06	55.396
1093.95	44.497
1096.84	35.241
1099.74	54.207
1102.63	74.932
1105.52	26.828
1108.41	68.825
1111.31	65.446
1114.2	63.336
1117.09	46.864
1119.99	26.718
1122.88	37.91
1125.77	38.85
1128.66	12.642
1131.56	43.535
1134.45	20.927
1137.34	44.229
1140.23	50.379
1143.13	33.919
1146.02	43.922
1148.91	58.075
1151.81	44.234
1154.7	52.539
1157.59	25.799
1160.48	29.048
1163.38	31.909
1166.27	41.479
1169.16	41.33
1172.05	23.815
1174.95	27.244
1177.84	24.529
1180.73	5.186
1183.62	21.541
1186.52	20.368
1189.41	0.457
1192.3	11.339
1195.2	20.903
1198.09	15.479
1200.98	29.577
1203.87	5.571
1206.77	17.114
1209.66	5.655
1212.55	18.967
1215.44	40.246
1218.34	42.122
1221.23	27.627
1224.12	17.834
1227.02	34.869
1229.91	19.389
1232.8	1.321
1235.69	24.706
1238.59	23.014
1241.48	21.174
1244.37	8.251
1247.26	4.735
1250.16	29.126
1253.05	16.385
1255.94	9.554
1258.84	10.606
1261.73	34.409
1264.62	1.23
1267.51	8.379
1270.41	24.066
1273.3	26.873
1276.19	35.533
1279.08	10.905
