Mineral: Magnesioferrite
Locality: Langban, Sweden
Rruff sample: R060869
Chemistry: MgFe^3+^_2_O_4_
x	intensity
83.918	0
87.2928	12.6883
90.6676	16.9611
94.0424	27.3077
97.4172	28.3455
100.792	28.1174
104.167	17.6701
107.542	8.3212
110.916	6.97214
114.291	31.4976
117.666	51.7569
121.041	122.219
124.416	155.797
127.79	182.063
131.165	195.808
134.54	172.796
137.915	193.283
141.29	206.115
144.665	188.958
148.039	179.721
151.414	171.681
154.789	159.767
158.164	142.677
161.539	132.097
164.913	151.762
168.288	151
171.663	131.538
175.038	103.771
178.413	146.362
181.788	102.059
185.162	116.955
188.537	117.145
191.912	129.089
195.287	126.461
198.662	101.641
202.036	100.783
205.411	79.7113
208.786	92.5315
212.161	80.7584
215.536	55.2557
218.911	56.4023
222.285	31.0278
225.66	33.6643
229.035	11.0748
232.41	2.63586
235.785	47.7023
239.159	8.56702
242.534	2.06348
245.909	13.5316
249.284	18.4562
252.659	31.2554
256.033	2.81848
259.408	10.5604
262.783	29.3735
266.158	8.9465
269.533	9.11352
272.908	16.2482
276.282	24.4632
279.657	12.8688
283.032	17.6134
286.407	1.95981
289.782	22.518
293.156	9.40994
296.531	34.8531
299.906	27.9974
303.281	25.7083
306.656	29.9371
310.031	60.3607
313.405	72.1735
316.78	78.164
320.155	108.174
323.53	112.833
326.904	137.229
330.279	146.392
333.654	156.364
337.029	157.457
340.404	131.848
343.779	140.473
347.153	83.2506
350.528	92.9686
353.903	67.915
357.278	76.5562
360.653	48.0065
364.027	59.3545
367.402	39.8612
370.777	49.5955
374.152	42.9342
377.527	49.4683
380.902	43.8137
384.276	38.4332
387.651	8.62878
391.026	35.2981
394.401	14.1451
397.776	26.819
401.151	7.62555
404.525	22.4804
407.9	19.4004
411.275	26.0378
414.65	29.9213
418.024	13.8201
421.399	12.0809
424.774	0.800415
428.149	22.4551
431.524	2.40949
434.899	33.5013
438.273	21.0435
441.648	1.99829
445.023	20.7064
448.398	33.9398
451.773	67.8953
455.147	25.0371
458.522	28.8146
461.897	61.1961
465.272	49.0204
468.647	48.9885
472.022	48.9275
475.396	57.8719
478.771	64.7332
482.146	62.2012
485.521	79.9533
488.896	60.0588
492.27	40.6628
495.645	39.4114
499.02	31.9531
502.395	2.7312
505.77	19.8632
509.144	11.7643
512.519	29.7181
515.894	7.03412
519.269	17.0524
522.644	60.0592
526.019	69.432
529.393	40.265
532.768	33.0619
536.143	15.2031
539.518	16.0577
542.893	10.71
546.268	7.42035
549.642	1.95404
553.017	5.60901
556.392	15.3769
559.767	2.49536
563.141	19.9709
566.516	53.1227
569.891	76.0128
573.266	115.174
576.641	159.538
580.016	256.81
583.39	342.113
586.765	501.803
590.14	676.057
593.515	873.796
596.89	1075.6
600.264	1259.08
603.639	1472.8
607.014	1615.71
610.389	1599.31
613.764	1570.07
617.139	1427.22
620.513	1259.83
623.888	1032.94
627.263	864.545
630.638	648.678
634.013	499.178
637.387	385.07
640.762	287.156
644.137	228.574
647.512	202.227
650.887	170.986
654.261	139.573
657.636	145.583
661.011	115.9
664.386	87.3417
667.761	79.999
671.135	68.2469
674.51	46.7523
677.885	70.585
681.26	34.1998
684.635	50.8082
688.01	76.6912
691.384	48.1676
694.759	28.0403
698.134	50.8148
701.509	64.583
704.884	22.0035
708.259	58.3783
711.633	1.25903
715.008	15.368
718.383	0.797424
721.758	11.2966
725.133	13.8467
728.507	3.13623
731.882	12.2896
735.257	15.7202
738.632	0.982239
742.007	11.4874
745.381	8.83014
748.756	23.6984
752.131	39.8763
755.506	7.71344
758.881	35.5027
762.255	34.9819
765.63	21.7672
769.005	25.3417
772.38	34.6161
775.755	48.5067
779.13	51.1364
782.504	34.0331
785.879	52.4923
789.254	55.1269
792.629	74.1155
796.004	67.1486
799.378	58.2269
802.753	37.0616
806.128	69.0524
809.503	84.1878
812.878	29.5803
816.253	31.8171
819.627	45.1107
823.002	21.2527
826.377	25.2253
829.752	57.2175
833.127	25.5649
836.501	20.6802
839.876	31.2925
843.251	18.7344
846.626	2.78125
850.001	38.4675
853.375	30.1526
856.75	28.6953
860.125	35.492
863.5	49.8955
866.875	40.5261
870.25	21.9061
873.624	15.0266
876.999	0.219055
880.374	32.3762
883.749	6.90485
887.124	21.3152
890.498	31.4878
893.873	24.7413
897.248	34.799
900.623	6.85577
903.998	23.1429
907.372	42.4153
910.747	26.3737
914.122	9.34943
917.497	21.9031
920.872	19.2923
924.246	14.2128
927.621	5.26971
930.996	42.0137
934.371	29.0417
937.746	12.1637
941.121	24.6537
944.495	47.129
947.87	20.7693
951.245	29.0147
954.62	32.1514
957.995	20.2371
961.37	9.47223
964.744	24.8976
968.119	1.83929
971.494	4.10956
974.869	37.6035
978.244	24.6456
981.618	38.5225
984.993	12.7439
988.368	10.8752
991.743	35.4159
995.118	17.5446
998.492	14.9404
1001.87	21.8288
1005.24	13.4136
1008.62	15.6137
1011.99	16.4076
1015.37	16.3166
1018.74	16.2434
1022.12	26.6547
1025.49	31.6229
1028.87	7.45996
1032.24	21.29
1035.62	11.6464
1038.99	36.6083
1042.37	39.9034
1045.74	31.9472
1049.12	22.3215
1052.49	24.3646
1055.86	37.029
1059.24	33.3916
1062.61	3.97168
1065.99	1.03107
1069.36	11.8619
1072.74	26.3072
1076.11	20.1196
1079.49	8.36438
1082.86	21.5814
1086.24	18.2925
1089.61	6.14917
1092.99	21.6875
1096.36	16.8652
1099.74	21.0267
1103.11	43.2946
1106.49	18.3968
1109.86	19.0248
1113.24	39.9873
1116.61	21.2918
1119.99	4.99261
1123.36	10.8191
1126.73	18.7923
1130.11	8.58844
1133.48	31.7213
1136.86	22.6337
1140.23	6.40064
1143.61	1.46606
1146.98	20.1588
1150.36	4.90533
1153.73	25.2325
1157.11	31.6202
1160.48	31.0301
1163.86	18.6148
1167.23	0.361877
1170.61	22.7878
1173.98	33.0608
1177.36	7.36951
1180.73	25.35
1184.11	41.2695
1187.48	50.9429
1190.86	23.609
1194.23	41.1283
1197.61	62.2894
1200.98	31.4993
1204.36	57.4576
1207.73	58.3055
1211.11	56.8698
1214.48	67.6123
1217.86	55.2461
1221.23	5.53845
1224.61	36.9767
1227.98	54.9408
1231.36	41.9497
1234.73	62.534
1238.1	28.2503
1241.48	51.7347
1244.85	52.645
1248.23	22.3705
1251.6	30.1421
1254.98	27.1107
1258.35	17.9722
1261.73	17.2562
1265.1	30.2183
1268.48	27.1908
1271.85	22.1588
1275.23	32.2626
1278.6	39.7886
1281.98	54.0463
1285.35	24.4542
1288.73	28.5282
1292.1	21.3496
1295.48	18.9623
1298.85	24.5549
